Circuit: *** SPICE deck for cell PLatch{sch} from library inv

Ignoring BSIM parameter XL
Ignoring BSIM parameter XW
Ignoring BSIM parameter XL
Ignoring BSIM parameter XW
Warning: Pd = 0 is less than W.
Warning: Ps = 0 is less than W.
Warning: Pd = 0 is less than W.
Warning: Ps = 0 is less than W.
.OP point found by inspection.

c_out=2e-007 FROM 0 TO 2e-007
d_out=2e-007 FROM 0 TO 2e-007


Date: Thu Aug 22 03:00:58 2024
Total elapsed time: 0.045 seconds.

tnom = 27
temp = 27
method = modified trap
totiter = 2525
traniter = 2525
tranpoints = 1097
accept = 1087
rejected = 10
matrix size = 9
fillins = 0
solver = Normal
Matrix Compiler1: 880 bytes object code size  0.2/0.1/[0.1]
Matrix Compiler2: 977 bytes object code size  0.1/0.1/[0.1]

